280

N   -1.134000   8.224000    -5.098000
H   -1.136000   9.229000    -5.195000
H   -0.495000   7.971000    -4.357000
H   -2.089000   7.898000    -5.074000
C   -0.549000   7.639000    -6.340000
H   0.368000   7.076000    -6.163000
C   -1.622000   6.698000    -7.016000
H   -2.517000   7.277000    -7.243000
C   -1.047000   6.102000    -8.325000
H   -0.151000   5.523000    -8.099000
H   -1.791000   5.454000    -8.787000
H   -0.792000   6.909000    -9.011000
C   -2.124000   5.578000    -6.072000
H   -2.981000   5.091000    -6.536000
H   -2.429000   6.030000    -5.128000
C   -1.007000   4.519000    -5.804000
H   -0.148000   5.005000    -5.340000
H   -1.390000   3.746000    -5.138000
H   -0.701000   4.066000    -6.747000
C   -0.237000   8.776000    -7.325000
O   -1.148000   9.569000    -7.678000
N   0.992000   8.847000    -7.770000
H   1.688000   8.203000    -7.422000
C   1.395000   9.821000    -8.829000
H   0.710000   10.664000    -8.916000
C   2.810000   10.364000    -8.492000
H   3.535000   9.553000    -8.568000
C   3.192000   11.491000    -9.481000
H   2.469000   12.303000    -9.405000
H   4.186000   11.867000    -9.238000
H   3.191000   11.098000    -10.498000
C   2.848000   10.873000    -7.003000
H   2.610000   10.049000    -6.330000
H   3.844000   11.252000    -6.773000
H   2.117000   11.671000    -6.872000
C   1.490000   9.129000    -10.197000
O   2.065000   8.013000    -10.305000
N   0.940000   9.779000    -11.177000
H   0.405000   10.623000    -11.029000
C   1.091000   9.288000    -12.536000
H   0.809000   10.087000    -13.222000
H   2.139000   9.029000    -12.692000
C   0.222000   8.052000    -12.822000
O   0.649000   7.231000    -13.680000
N   -0.901000   7.843000    -12.052000
H   -1.180000   8.524000    -11.360000
C   -1.725000   6.628000    -12.211000
H   -1.190000   5.910000    -12.834000
H   -1.911000   6.190000    -11.231000
C   -3.070000   6.961000    -12.874000
O   -3.186000   8.002000    -13.574000
N   -4.088000   6.160000    -12.635000
H   -3.972000   5.342000    -12.053000
C   -5.395000   6.393000    -13.254000
H   -5.497000   7.440000    -13.537000
C   -5.529000   5.509000    -14.544000
H   -6.501000   5.727000    -14.986000
H   -4.741000   5.809000    -15.235000
C   -5.418000   3.991000    -14.264000
C   -6.527000   3.160000    -14.150000
H   -7.529000   3.571000    -14.267000
C   -6.356000   1.794000    -13.884000
H   -7.214000   1.126000    -13.815000
C   -5.058000   1.281000    -13.757000
O   -4.784000   -0.095000    -13.465000
H   -5.579000   -0.623000    -13.366000
C   -3.967000   2.116000    -13.864000
H   -2.957000   1.722000    -13.749000
C   -4.160000   3.466000    -14.120000
H   -3.301000   4.132000    -14.210000
C   -6.457000   6.084000    -12.224000
O   -6.140000   5.520000    -11.155000
N   -7.620000   6.566000    -12.466000
H   -7.775000   7.045000    -13.341000
C   -8.770000   6.348000    -11.578000
H   -8.550000   6.577000    -10.535000
C   -9.931000   7.257000    -12.050000
H   -10.138000   7.039000    -13.098000
C   -11.208000   7.019000    -11.212000
H   -11.001000   7.237000    -10.164000
H   -12.004000   7.672000    -11.569000
H   -11.519000   5.979000    -11.311000
O   -9.505000   8.580000    -11.960000
H   -10.210000   9.164000    -12.248000
C   -9.286000   4.927000    -11.741000
O   -9.549000   4.466000    -12.888000
N   -9.174000   4.191000    -10.691000
H   -9.037000   4.580000    -9.769000
C   -9.405000   2.755000    -10.808000
H   -8.611000   2.269000    -11.377000
C   -9.412000   2.182000    -9.394000
H   -10.121000   2.737000    -8.780000
H   -9.704000   1.133000    -9.428000
S   -7.843000   2.368000    -8.509000
C   -10.808000   2.468000    -11.331000
O   -10.983000   1.452000    -12.017000
N   -11.812000   3.206000    -10.877000
H   -11.600000   4.029000    -10.331000
C   -13.218000   2.883000    -11.131000
H   -13.776000   3.786000    -11.378000
H   -13.301000   2.169000    -11.950000
C   -13.810000   2.263000    -9.870000
O   -13.072000   1.543000    -9.149000
N   -15.049000   2.668000    -9.532000
H   -15.534000   3.342000    -10.107000
C   -15.657000   2.281000    -8.238000
H   -14.973000   2.673000    -7.484000
C   -17.038000   2.967000    -8.060000
H   -17.735001   2.578000    -8.802000
H   -17.420000   2.761000    -7.060000
H   -16.929001   4.043000    -8.193000
C   -15.714000   0.755000    -8.018000
O   -16.201000   -0.009000    -8.894000
N   -15.150000   0.319000    -6.877000
H   -14.649000   1.012000    -6.339000
C   -15.158000   -1.049000    -6.397000
H   -14.542000   -1.120000    -5.500000
C   -16.570999   -1.514000    -6.056000
H   -17.132999   -1.558000    -6.989000
H   -16.582001   -2.494000    -5.579000
C   -17.254999   -0.500000    -5.115000
O   -16.837999   -0.303000    -3.935000
N   -18.313999   0.075000    -5.607000
H   -18.820000   0.752000    -5.054000
H   -18.624001   -0.159000    -6.539000
C   -14.540000   -1.974000    -7.429000
O   -14.683000   -3.214000    -7.293000
N   -13.657000   -1.411000    -8.271000
H   -13.550000   -0.422000    -8.445000
C   -12.834000   -2.359000    -9.065000
H   -13.440000   -3.214000    -9.364000
C   -12.283000   -1.677000    -10.336000
H   -11.779000   -2.439000    -10.931000
C   -13.374000   -1.014000    -11.176000
H   -13.877000   -0.251000    -10.582000
H   -12.925000   -0.552000    -12.055000
H   -14.098000   -1.766000    -11.490000
O   -11.343000   -0.670000    -9.974000
H   -11.003000   -0.249000    -10.767000
C   -11.660000   -2.997000    -8.303000
O   -10.998000   -3.922000    -8.838000
N   -11.370000   -2.558000    -7.081000
H   -11.900000   -1.789000    -6.696000
C   -10.280000   -3.139000    -6.262000
H   -9.856000   -4.065000    -6.652000
C   -9.126000   -2.122000    -6.033000
H   -9.494000   -1.305000    -5.412000
C   -7.926000   -2.804000    -5.330000
H   -7.557000   -3.621000    -5.950000
H   -7.130000   -2.075000    -5.179000
H   -8.245000   -3.197000    -4.365000
C   -8.685000   -1.355000    -7.309000
H   -9.530000   -0.793000    -7.706000
H   -7.876000   -0.668000    -7.059000
H   -8.338000   -2.066000    -8.059000
C   -10.810000   -3.593000    -4.881000
O   -10.840000   -2.781000    -3.943000
N   -11.596000   -4.643000    -4.865000
C   -11.579000   -5.770000    -5.836000
H   -10.591000   -6.230000    -5.803000
H   -11.756000   -5.362000    -6.831000
C   -12.709000   -6.744000    -5.383000
H   -12.249000   -7.696000    -5.119000
H   -13.388000   -6.889000    -6.223000
C   -13.444000   -6.125000    -4.185000
H   -13.428000   -6.846000    -3.368000
H   -14.474000   -5.843000    -4.400000
C   -12.616000   -4.860000    -3.793000
H   -13.220000   -3.957000    -3.706000
C   -11.961000   -5.170000    -2.436000
O   -12.694000   -5.197000    -1.434000
N   -10.656000   -5.448000    -2.407000
H   -10.130000   -5.448000    -3.269000
C   -9.946000   -5.768000    -1.157000
H   -10.653000   -6.195000    -0.446000
C   -8.799000   -6.783000    -1.384000
H   -8.155000   -6.746000    -0.505000
H   -9.193000   -7.792000    -1.503000
C   -7.979000   -6.398000    -2.639000
C   -6.940000   -5.489000    -2.541000
H   -6.697000   -5.072000    -1.564000
C   -6.202000   -5.102000    -3.674000
H   -5.386000   -4.383000    -3.592000
C   -6.519000   -5.667000    -4.922000
O   -5.774000   -5.317000    -6.088000
H   -5.074000   -4.684000    -5.910000
C   -7.593000   -6.577000    -5.023000
H   -7.856000   -7.001000    -5.992000
C   -8.322000   -6.937000    -3.877000
H   -9.153000   -7.637000    -3.958000
C   -9.353000   -4.501000    -0.562000
O   -8.728000   -4.605000    0.545000
N   -9.468000   -3.379000    -1.328000
H   -9.894000   -3.376000    -2.243000
C   -8.836000   -2.113000    -0.835000
H   -7.821000   -2.341000    -0.508000
C   -8.771000   -0.990000    -1.918000
H   -8.090000   -1.333000    -2.697000
H   -9.773000   -0.883000    -2.333000
C   -8.280000   0.402000    -1.367000
H   -8.579000   1.037000    -2.201000
H   -8.760000   0.752000    -0.453000
C   -6.742000   0.508000    -1.191000
O   -6.210000   1.094000    -0.173000
N   -6.037000   0.159000    -2.254000
H   -5.028000   0.199000    -2.223000
H   -6.510000   -0.146000    -3.092000
C   -9.580000   -1.639000    0.419000
O   -10.814000   -1.403000    0.311000
N   -8.856000   -1.293000    1.490000
H   -7.859000   -1.452000    1.537000
C   -9.527000   -0.669000    2.664000
H   -10.496000   -0.228000    2.896000
C   -9.123000   -1.634000    3.832000
H   -8.225000   -2.122000    3.453000
C   -8.862000   -1.115000    5.233000
H   -9.759000   -0.627000    5.613000
H   -8.597000   -1.947000    5.886000
H   -8.041000   -0.398000    5.208000
C   -9.701000   -3.065000    3.684000
H   -9.340000   -3.509000    2.756000
H   -9.380000   -3.676000    4.528000
H   -10.789000   -3.017000    3.664000
C   -9.002000   0.764000    2.836000
O   -7.803000   1.023000    2.510000
N   -9.789000   1.574000    3.513000
H   -10.763000   1.356000    3.667000
C   -9.260000   2.836000    4.061000
H   -8.239000   2.994000    3.711000
C   -10.126000   4.022000    3.602000
H   -9.903000   4.199000    2.550000
H   -11.168000   3.723000    3.707000
O   -9.894000   5.240000    4.357000
H   -10.462000   5.937000    4.022000
C   -9.289000   2.703000    5.594000
O   -10.323000   2.266000    6.157000
N   -8.191000   3.097000    6.219000
H   -7.364000   3.308000    5.679000
C   -8.122000   3.232000    7.677000
H   -8.830000   2.549000    8.146000
C   -6.693000   2.891000    8.184000
H   -6.043000   3.631000    7.717000
H   -6.647000   3.001000    9.268000
C   -6.223000   1.469000    7.789000
H   -6.061000   1.433000    6.712000
C   -4.909000   1.119000    8.518000
H   -5.070000   1.154000    9.596000
H   -4.589000   0.117000    8.232000
H   -4.137000   1.838000    8.243000
C   -7.315000   0.420000    8.095000
H   -8.217000   0.659000    7.532000
H   -6.959000   -0.570000    7.808000
H   -7.540000   0.430000    9.162000
C   -8.481000   4.693000    8.050000
O   -7.854000   5.652000    7.527000
N   -9.483000   4.798000    8.877000
H   -9.922000   3.946000    9.194000
C   -10.087000   6.075000    9.262000
H   -9.506000   6.892000    8.834000
C   -11.552000   6.187000    8.755000
H   -11.581000   5.930000    7.696000
H   -12.150000   5.471000    9.319000
C   -12.156000   7.578000    8.937000
O   -12.441000   7.986000    10.103000
N   -12.330000   8.294000    7.834000
H   -12.725000   9.221000    7.895000
H   -12.065000   7.909000    6.939000
C   -9.960000   6.296000    10.779000
O   -10.349000   5.425000    11.618000
N   -9.438000   7.495000    11.109000
H   -8.919000   8.086000    10.475000
C   -9.500000   7.876000    12.513000
H   -10.170000   7.198000    13.041000
C   -8.105000   7.811000    13.181000
H   -8.192000   8.103000    14.228000
H   -7.722000   6.792000    13.119000
O   -7.195000   8.709000    12.505000
H   -6.332000   8.665000    12.923000
C   -10.181000   9.231000    12.671000
O   -9.534000   10.142000    13.241000
