
     RDKit          3D

 68 72  0  0  0  0  0  0  0  0999 V2000
   -5.6073   -0.6342    4.1044 C   0  0  0  0  0  0  0  0  0  0  0  0
   -4.1957   -0.6367    3.5791 C   0  0  0  0  0  0  0  0  0  0  0  0
   -3.1486   -0.8699    4.4854 C   0  0  0  0  0  0  0  0  0  0  0  0
   -1.8206   -0.8974    4.0588 C   0  0  0  0  0  0  0  0  0  0  0  0
   -1.5152   -0.6926    2.7190 C   0  0  0  0  0  0  0  0  0  0  0  0
   -0.2036   -0.7164    2.1976 N   0  0  0  0  0  0  0  0  0  0  0  0
    0.9791   -0.8552    2.9010 C   0  0  0  0  0  0  0  0  0  0  0  0
    1.1099   -0.9062    4.1183 O   0  0  0  0  0  0  0  0  0  0  0  0
    2.2078   -0.9060    2.0577 C   0  0  0  0  0  0  0  0  0  0  0  0
    3.3848   -0.3367    2.5578 C   0  0  0  0  0  0  0  0  0  0  0  0
    4.5592   -0.3694    1.8021 C   0  0  0  0  0  0  0  0  0  0  0  0
    4.5740   -0.9777    0.5395 C   0  0  0  0  0  0  0  0  0  0  0  0
    5.8550   -1.0374   -0.2724 C   0  0  0  0  0  0  0  0  0  0  0  0
    5.7094   -0.4250   -1.6063 N   0  0  0  0  0  0  0  0  0  0  0  0
    5.7097    1.0557   -1.5253 C   0  0  0  0  0  0  0  0  0  0  0  0
    7.0864    1.7596   -1.6900 C   0  0  0  0  0  0  0  0  0  0  0  0
    8.2153    0.9042   -1.3040 N   0  0  0  0  0  0  0  0  0  0  0  0
    9.4895    1.6069   -1.3994 C   0  0  0  0  0  0  0  0  0  0  0  0
    8.2212   -0.3350   -2.1035 C   0  0  0  0  0  0  0  0  0  0  0  0
    6.8100   -0.8520   -2.4910 C   0  0  0  0  0  0  0  0  0  0  0  0
    3.3949   -1.5631    0.0524 C   0  0  0  0  0  0  0  0  0  0  0  0
    2.2185   -1.5329    0.8060 C   0  0  0  0  0  0  0  0  0  0  0  0
   -2.5616   -0.4598    1.8123 C   0  0  0  0  0  0  0  0  0  0  0  0
   -3.9069   -0.4100    2.2142 C   0  0  0  0  0  0  0  0  0  0  0  0
   -4.9567   -0.2014    1.3065 N   0  0  0  0  0  0  0  0  0  0  0  0
   -5.0424   -0.0667   -0.0759 C   0  0  0  0  0  0  0  0  0  0  0  0
   -3.9936   -0.2654   -0.8835 N   0  0  0  0  0  0  0  0  0  0  0  0
   -4.2004   -0.1306   -2.2034 C   0  0  0  0  0  0  0  0  0  0  0  0
   -5.4130    0.2036   -2.7523 C   0  0  0  0  0  0  0  0  0  0  0  0
   -6.4487    0.3999   -1.8627 C   0  0  0  0  0  0  0  0  0  0  0  0
   -7.8156    0.7640   -2.2794 C   0  0  0  0  0  0  0  0  0  0  0  0
   -8.9238    0.4417   -1.4903 C   0  0  0  0  0  0  0  0  0  0  0  0
  -10.2159    0.7299   -1.7947 N   0  0  0  0  0  0  0  0  0  0  0  0
  -10.4318    1.3887   -2.9489 C   0  0  0  0  0  0  0  0  0  0  0  0
   -9.4184    1.7702   -3.8089 C   0  0  0  0  0  0  0  0  0  0  0  0
   -8.1020    1.4545   -3.4672 C   0  0  0  0  0  0  0  0  0  0  0  0
   -6.2648    0.2564   -0.5301 N   0  0  0  0  0  0  0  0  0  0  0  0
   -6.2130   -1.3761    3.5738 H   0  0  0  0  0  0  0  0  0  0  0  0
   -5.6428   -0.8875    5.1693 H   0  0  0  0  0  0  0  0  0  0  0  0
   -6.0534    0.3583    3.9848 H   0  0  0  0  0  0  0  0  0  0  0  0
   -3.3581   -1.0402    5.5394 H   0  0  0  0  0  0  0  0  0  0  0  0
   -1.0506   -1.0897    4.7987 H   0  0  0  0  0  0  0  0  0  0  0  0
   -0.1307   -0.5500    1.2023 H   0  0  0  0  0  0  0  0  0  0  0  0
    3.3887    0.1338    3.5389 H   0  0  0  0  0  0  0  0  0  0  0  0
    5.4631    0.0808    2.2073 H   0  0  0  0  0  0  0  0  0  0  0  0
    6.6822   -0.5957    0.2960 H   0  0  0  0  0  0  0  0  0  0  0  0
    6.0942   -2.1048   -0.3755 H   0  0  0  0  0  0  0  0  0  0  0  0
    5.0539    1.4250   -2.3240 H   0  0  0  0  0  0  0  0  0  0  0  0
    5.2434    1.3971   -0.5933 H   0  0  0  0  0  0  0  0  0  0  0  0
    7.0781    2.6701   -1.0788 H   0  0  0  0  0  0  0  0  0  0  0  0
    7.2005    2.0747   -2.7358 H   0  0  0  0  0  0  0  0  0  0  0  0
    9.4970    2.4798   -0.7377 H   0  0  0  0  0  0  0  0  0  0  0  0
    9.7004    1.9467   -2.4199 H   0  0  0  0  0  0  0  0  0  0  0  0
   10.3104    0.9577   -1.0759 H   0  0  0  0  0  0  0  0  0  0  0  0
    8.7934   -0.2055   -3.0317 H   0  0  0  0  0  0  0  0  0  0  0  0
    8.7296   -1.1074   -1.5138 H   0  0  0  0  0  0  0  0  0  0  0  0
    6.8285   -1.9452   -2.5780 H   0  0  0  0  0  0  0  0  0  0  0  0
    6.5771   -0.4878   -3.5009 H   0  0  0  0  0  0  0  0  0  0  0  0
    3.3987   -2.0507   -0.9208 H   0  0  0  0  0  0  0  0  0  0  0  0
    1.3337   -2.0277    0.4155 H   0  0  0  0  0  0  0  0  0  0  0  0
   -2.3133   -0.3001    0.7684 H   0  0  0  0  0  0  0  0  0  0  0  0
   -5.8622    0.0068    1.6987 H   0  0  0  0  0  0  0  0  0  0  0  0
   -3.3310   -0.3104   -2.8286 H   0  0  0  0  0  0  0  0  0  0  0  0
   -5.5296    0.2843   -3.8238 H   0  0  0  0  0  0  0  0  0  0  0  0
   -8.8023   -0.0886   -0.5474 H   0  0  0  0  0  0  0  0  0  0  0  0
  -11.4717    1.6121   -3.1695 H   0  0  0  0  0  0  0  0  0  0  0  0
   -9.6449    2.3075   -4.7233 H   0  0  0  0  0  0  0  0  0  0  0  0
   -7.3076    1.7747   -4.1360 H   0  0  0  0  0  0  0  0  0  0  0  0
  1  2  1  0
  2  3  2  0
  3  4  1  0
  4  5  2  0
  5  6  1  0
  6  7  1  0
  7  8  2  0
  7  9  1  0
  9 10  2  0
 10 11  1  0
 11 12  2  0
 12 13  1  0
 13 14  1  0
 14 15  1  0
 15 16  1  0
 16 17  1  0
 17 18  1  0
 17 19  1  0
 19 20  1  0
 12 21  1  0
 21 22  2  0
  5 23  1  0
 23 24  2  0
 24 25  1  0
 25 26  1  0
 26 27  2  0
 27 28  1  0
 28 29  2  0
 29 30  1  0
 30 31  1  0
 31 32  2  0
 32 33  1  0
 33 34  2  0
 34 35  1  0
 35 36  2  0
 30 37  2  0
 24  2  1  0
 37 26  1  0
 22  9  1  0
 36 31  1  0
 20 14  1  0
  1 38  1  0
  1 39  1  0
  1 40  1  0
  3 41  1  0
  4 42  1  0
  6 43  1  0
 10 44  1  0
 11 45  1  0
 13 46  1  0
 13 47  1  0
 15 48  1  0
 15 49  1  0
 16 50  1  0
 16 51  1  0
 18 52  1  0
 18 53  1  0
 18 54  1  0
 19 55  1  0
 19 56  1  0
 20 57  1  0
 20 58  1  0
 21 59  1  0
 22 60  1  0
 23 61  1  0
 25 62  1  0
 28 63  1  0
 29 64  1  0
 32 65  1  0
 34 66  1  0
 35 67  1  0
 36 68  1  0
M  END
$$$$
