89
3l5e_BDW_1_ligand
C         20.34700       10.88700       22.00800
N         21.02600        9.77100       22.66800
O         20.28800       13.22000       22.77700
C         21.62200       10.27400       23.78400
N         21.41800       11.59800       23.95500
O         28.47400       14.45500       24.74300
C         20.66500       12.06400       22.94300
N         22.34600        9.55000       24.64600
C         20.91800       11.12700       20.58800
N         27.53700       15.06100       22.76300
C         18.83300       10.66600       21.93400
N         29.35200       13.82000       22.73600
C         22.38700       11.58000       20.53600
C         21.93700       12.41500       25.05900
C         23.08200       13.29500       24.60000
C         22.97600       14.71400       24.67300
C         24.05900       15.53800       24.23700
C         25.25200       14.94600       23.72600
C         25.34900       13.52100       23.65600
C         24.27200       12.70100       24.09000
C         23.33600       10.40300       20.76600
C         24.79600       10.72400       20.46200
C         24.96000       11.24200       19.04500
C         24.13900       12.50400       18.86200
C         22.66700       12.25300       19.18300
C         18.17500       10.68400       23.30100
C         26.40000       15.84000       23.26700
C         27.71500       14.91400       21.33200
C         28.98300       14.02800       21.32400
C         28.46000       14.44500       23.51100
C         28.61600       12.68100       20.67200
C         29.19700       11.43000       21.28700
C         28.57000       10.15900       20.68300
C         16.71700       10.22600       23.27700
C         16.18300       10.10100       24.69900
C         14.70500        9.72500       24.74800
C         13.85600       10.71100       23.94400
C         14.35600       10.88300       22.51200
C         15.85400       11.18400       22.44900
H         21.01660        8.89910       22.33770
H         22.69060       10.03680       25.44870
H         22.47740        8.58710       24.41010
H         20.29220       11.88570       20.08350
H         20.81140       10.19320       20.00620
H         18.63960        9.70120       21.44930
H         18.39130       11.44990       21.30680
H         30.11580       13.31120       22.97630
H         22.54270       12.31360       21.31670
H         22.29500       11.77330       25.87590
H         21.14420       13.05720       25.46670
H         22.12820       15.14330       25.03600
H         23.97780       16.55100       24.29170
H         26.20030       13.09260       23.29070
H         24.35010       11.68710       24.03670
H         23.01540        9.55840       20.13610
H         23.25100       10.07630       21.81430
H         25.39490        9.82030       20.58990
H         25.15080       11.47770       21.16750
H         24.62250       10.48520       18.34210
H         26.00790       11.46150       18.85930
H         24.22520       12.84810       17.83020
H         24.51960       13.28500       19.52200
H         22.12330       13.21900       19.15140
H         22.22680       11.62670       18.38070
H         18.21970       11.70410       23.71190
H         18.74040       10.03240       23.98450
H         26.01860       16.51600       22.48600
H         26.70860       16.46760       24.11750
H         27.94610       15.82600       20.86190
H         26.93130       14.37350       20.88480
H         29.73400       14.50470       20.78270
H         28.91080       12.72930       19.59410
H         27.50070       12.59800       20.65920
H         29.01700       11.42910       22.36450
H         30.27580       11.40070       21.11760
H         16.67840        9.24340       22.81080
H         16.32700       11.05600       25.22220
H         16.76430        9.33890       25.23540
H         14.36740        9.72490       25.78490
H         14.57420        8.72310       24.33790
H         13.86630       11.68470       24.44760
H         12.81940       10.35490       23.92240
H         13.80650       11.70240       22.03540
H         14.15160        9.96650       21.94740
H         16.18360       11.14200       21.39850
H         16.02730       12.21350       22.80120
H         28.72550       10.10070       19.69690
H         28.95030        9.32820       21.08930
H         27.58070       10.12890       20.82600
